Circuit: * C:\Users\Lenovo\Desktop\rectificador de precision onda completa\simulación LTSpice\rectificador.asc

Direct Newton iteration for .op point succeeded.

Date: Fri Dec 07 19:33:02 2018
Total elapsed time: 0.251 seconds.

tnom = 27
temp = 27
method = modified trap
totiter = 6236
traniter = 6211
tranpoints = 1719
accept = 1229
rejected = 490
matrix size = 11
fillins = 3
solver = Normal
Matrix Compiler1: 1016 bytes object code size  0.5/0.4/[0.2]
Matrix Compiler2: off  [0.3]/0.5/0.4


